Circuit: * /Users/arachnid/Google Drive/projects/tsunami/spice/tsunami output stage.asc

Early termination of direct N-R iteration.
Direct Newton iteration failed to find .op point.  (Use ".option noopiter" to skip.)
Starting Gmin stepping
Gmin = 10
Gmin = 1.07374
vernier = 0.5
vernier = 0.25
vernier = 0.125
vernier = 0.0625
vernier = 0.03125
Gmin = 1.0412
vernier = 0.015625
vernier = 0.0078125
Gmin = 1.0132
vernier = 0.00390625
vernier = 0.00195312
Gmin = 1.00827
vernier = 0.00260417
vernier = 0.00130208
Gmin = 1.00515
vernier = 0.000651042
vernier = 0.000868055
vernier = 0.000434028
Gmin = 1.00434
vernier = 0.000578703
vernier = 0.000434027
Gmin = 1.00339
Gmin = 0
Gmin stepping failed

Starting source stepping with srcstepmethod=0
Source Step = 3.0303%
Source Step = 33.3333%
Source Step = 40.1515%
Source Step = 47.7273%
Source Step = 55.303%
Source Step = 62.8788%
Source Step = 70.4545%
vernier = 0.375
Source Step = 81.0606%
Source Step = 92.4242%
Source stepping succeeded in finding the operating point.


vpp: PP(v(n003))=6.71618 FROM 0 TO 0.1
voff: AVG(v(n003))=-0.0109359 FROM 0 TO 0.1


Date: Wed Mar 25 07:59:25 2015
Total elapsed time: 3.157 seconds.

tnom = 27
temp = 27
method = modified trap
totiter = 67441
traniter = 61868
tranpoints = 18185
accept = 12746
rejected = 5439
matrix size = 39
fillins = 145
solver = Normal
Thread vector: 20.0/15.9[4] 9.2/9.6[1] 2.6/5.2[1] 0.4/4.6[1]  2592/500
Matrix Compiler1: 11032 object code size  3.1/2.0/[1.1]
Matrix Compiler2:     460 opcodes

